<additional>
    <laneData id="edge_data" freq="300" edges="E0 E1 E2" file="edge_out" exludeEmpty="true"/>
</additional>