<?xml version="1.0" encoding="UTF-8"?>

<!-- generated on 2023-09-12 12:53:23 by Eclipse SUMO netedit Version 1.15.0
<configuration xmlns:xsi="http://www.w3.org/2001/XMLSchema-instance" xsi:noNamespaceSchemaLocation="http://sumo.dlr.de/xsd/netconvertConfiguration.xsd">

    <input>
        <sumo-net-file value="C:\Users\Administrator\OneDrive\桌面\Programme\programme\VSL_DRL_PLATOONING\cfg\highway.net.xml"/>
    </input>

    <output>
        <output-file value="C:\Users\Administrator\OneDrive\桌面\Programme\programme\VSL_DRL_PLATOONING\cfg\highway.net.xml"/>
    </output>

    <processing>
        <geometry.min-radius.fix.railways value="false"/>
        <geometry.max-grade.fix value="false"/>
        <offset.disable-normalization value="true"/>
        <lefthand value="0"/>
    </processing>

    <junctions>
        <no-turnarounds value="true"/>
        <junctions.corner-detail value="5"/>
        <junctions.limit-turn-speed value="5.50"/>
        <rectangular-lane-cut value="0"/>
    </junctions>

    <pedestrian>
        <walkingareas value="0"/>
    </pedestrian>

</configuration>
-->

<net version="1.9" junctionCornerDetail="5" limitTurnSpeed="5.50" xmlns:xsi="http://www.w3.org/2001/XMLSchema-instance" xsi:noNamespaceSchemaLocation="http://sumo.dlr.de/xsd/net_file.xsd">

    <location netOffset="0.00,0.00" convBoundary="0.00,100.00,5000.00,100.00" origBoundary="-10000000000.00,-10000000000.00,10000000000.00,10000000000.00" projParameter="!"/>

    <edge id=":J2_0" function="internal">
        <lane id=":J2_0_0" index="0" speed="40.00" length="0.10" shape="500.00,92.00 500.00,92.00"/>
        <lane id=":J2_0_1" index="1" speed="40.00" length="0.10" shape="500.00,95.20 500.00,95.20"/>
        <lane id=":J2_0_2" index="2" speed="40.00" length="0.10" shape="500.00,98.40 500.00,98.40"/>
    </edge>
    <edge id=":J3_0" function="internal">
        <lane id=":J3_0_0" index="0" speed="40.00" length="0.10" shape="1000.00,92.00 1000.00,92.00"/>
        <lane id=":J3_0_1" index="1" speed="40.00" length="0.10" shape="1000.00,95.20 1000.00,95.20"/>
        <lane id=":J3_0_2" index="2" speed="40.00" length="0.10" shape="1000.00,98.40 1000.00,98.40"/>
    </edge>

    <edge id="E0" from="J1" to="J2" priority="7">
        <lane id="E0_0" index="0" speed="40.00" length="500.00" shape="0.00,92.00 500.00,92.00"/>
        <lane id="E0_1" index="1" speed="40.00" length="500.00" shape="0.00,95.20 500.00,95.20"/>
        <lane id="E0_2" index="2" speed="40.00" length="500.00" shape="0.00,98.40 500.00,98.40"/>
    </edge>
    <edge id="E1" from="J2" to="J3" priority="7">
        <lane id="E1_0" index="0" speed="40.00" length="500.00" shape="500.00,92.00 1000.00,92.00"/>
        <lane id="E1_1" index="1" speed="40.00" length="500.00" shape="500.00,95.20 1000.00,95.20"/>
        <lane id="E1_2" index="2" speed="40.00" length="500.00" shape="500.00,98.40 1000.00,98.40"/>
    </edge>
    <edge id="E2" from="J3" to="J4" priority="7">
        <lane id="E2_0" index="0" speed="40.00" length="4000.00" shape="1000.00,92.00 5000.00,92.00"/>
        <lane id="E2_1" index="1" speed="40.00" length="4000.00" shape="1000.00,95.20 5000.00,95.20"/>
        <lane id="E2_2" index="2" speed="40.00" length="4000.00" shape="1000.00,98.40 5000.00,98.40"/>
    </edge>

    <junction id="J1" type="dead_end" x="0.00" y="100.00" incLanes="" intLanes="" shape="0.00,100.00 0.00,90.40"/>
    <junction id="J2" type="priority" x="500.00" y="100.00" incLanes="E0_0 E0_1 E0_2" intLanes=":J2_0_0 :J2_0_1 :J2_0_2" shape="500.00,100.00 500.00,90.40 500.00,100.00">
        <request index="0" response="000" foes="000" cont="0"/>
        <request index="1" response="000" foes="000" cont="0"/>
        <request index="2" response="000" foes="000" cont="0"/>
    </junction>
    <junction id="J3" type="priority" x="1000.00" y="100.00" incLanes="E1_0 E1_1 E1_2" intLanes=":J3_0_0 :J3_0_1 :J3_0_2" shape="1000.00,100.00 1000.00,90.40 1000.00,100.00">
        <request index="0" response="000" foes="000" cont="0"/>
        <request index="1" response="000" foes="000" cont="0"/>
        <request index="2" response="000" foes="000" cont="0"/>
    </junction>
    <junction id="J4" type="dead_end" x="5000.00" y="100.00" incLanes="E2_0 E2_1 E2_2" intLanes="" shape="5000.00,90.40 5000.00,100.00"/>

    <connection from="E0" to="E1" fromLane="0" toLane="0" via=":J2_0_0" dir="s" state="M"/>
    <connection from="E0" to="E1" fromLane="1" toLane="1" via=":J2_0_1" dir="s" state="M"/>
    <connection from="E0" to="E1" fromLane="2" toLane="2" via=":J2_0_2" dir="s" state="M"/>
    <connection from="E1" to="E2" fromLane="0" toLane="0" via=":J3_0_0" dir="s" state="M"/>
    <connection from="E1" to="E2" fromLane="1" toLane="1" via=":J3_0_1" dir="s" state="M"/>
    <connection from="E1" to="E2" fromLane="2" toLane="2" via=":J3_0_2" dir="s" state="M"/>

    <connection from=":J2_0" to="E1" fromLane="0" toLane="0" dir="s" state="M"/>
    <connection from=":J2_0" to="E1" fromLane="1" toLane="1" dir="s" state="M"/>
    <connection from=":J2_0" to="E1" fromLane="2" toLane="2" dir="s" state="M"/>
    <connection from=":J3_0" to="E2" fromLane="0" toLane="0" dir="s" state="M"/>
    <connection from=":J3_0" to="E2" fromLane="1" toLane="1" dir="s" state="M"/>
    <connection from=":J3_0" to="E2" fromLane="2" toLane="2" dir="s" state="M"/>

</net>
