<?xml version="1.0" encoding="iso-8859-1"?>

<configuration xmlns:xsi="http://www.w3.org/2001/XMLSchema-instance" xsi:noNamespaceSchemaLocation="http://sumo.sf.net/xsd/sumoConfiguration.xsd">

    <input>
        <net-file value="train_freeway.net.xml"/>
        <route-files value="train_freeway.rou.xml"/>
        <additional-files value="parkingarea.add.xml"/>
    </input>

    <time>
        <begin value="0"/>
        <end value="81600"/>
        <step-length value="0.01"/>
    </time>

    <processing>
        <collision.action value="remove"/>
        <collision.stoptime value="10000"/>
    </processing>

    <gui_only>
        <start value="true"/>
        <gui-settings-file value="freeway.gui.xml"/>
    </gui_only>

</configuration>
